Questionable use of curly braces in "b6 en_chg 0 v={if((v(cmd_chg)>0.5)&v(fault_occ)<1,1,0)}"
    Error: undefined symbol in: "if(([v](cmd_chg)>0.5)&v(fault_occ)<1,1,0)"
Questionable use of curly braces in "b7 en_dsg 0 v={if((v(cmd_dsg)>0.5)&v(fault_ocd)<1,1,0)}"
    Error: undefined symbol in: "if(([v](cmd_dsg)>0.5)&v(fault_ocd)<1,1,0)"
Circuit: * C:\Users\lenovo\Documentos\Sensoria\Sim\BMS_Prot_Principal.asc

Warning: Multiple definitions of model "swlatch" Type: Switch
WARNING: Node N002 is floating.
WARNING: Node N005 is floating.

Direct Newton iteration for .op point succeeded.
.step cap=1e-05
.step cap=5e-05
.step cap=0.0002
.step cap=0.001

Date: Tue Jan 13 14:21:07 2026
Total elapsed time: 36.245 seconds.

tnom = 27
temp = 27
method = Gear
totiter = 106538
traniter = 106490
tranpoints = 40417
accept = 40320
rejected = 97
matrix size = 95
fillins = 60
solver = Alternate
Avg thread counts: 2.0/1.0/1.0/1.0
Matrix Compiler1: 9.59 KB object code size  4.6/4.3/[2.9]
Matrix Compiler2: 8.63 KB object code size  2.9/3.7/[2.3]

