Questionable use of curly braces in "b6 en_chg 0 v={if(v(cmd_chg)>0.5,1,0)}"
    Error: undefined symbol in: "if([v](cmd_chg)>0.5,1,0)"
Questionable use of curly braces in "b7 en_dchg 0 v={if(v(cmd_dchg)>0.5,1,0)}"
    Error: undefined symbol in: "if([v](cmd_dchg)>0.5,1,0)"
Circuit: * C:\Users\lenovo\Documentos\Sensoria\Sim\BMS_Prot_Principal.asc

WARNING: Node N001 is floating.
WARNING: Node N003 is floating.

Direct Newton iteration for .op point succeeded.

Date: Thu Dec 18 14:10:52 2025
Total elapsed time: 0.694 seconds.

tnom = 27
temp = 27
method = Gear
totiter = 1921
traniter = 1872
tranpoints = 864
accept = 780
rejected = 84
matrix size = 49
fillins = 25
solver = Alternate
Avg thread counts: 1.7/2.5/2.4/1.7
Matrix Compiler1: 5.28 KB object code size  2.8/2.4/[1.4]
Matrix Compiler2: 4.68 KB object code size  1.6/2.5/[1.6]

