Circuit: * C:\Users\lenovo\Documentos\Sensoria\Sim\Carga_Bat.asc

Direct Newton iteration for .op point succeeded.

Date: Mon Jan 12 12:59:38 2026
Total elapsed time: 0.233 seconds.

tnom = 27
temp = 27
method = Gear
totiter = 2405
traniter = 2400
tranpoints = 1201
accept = 1170
rejected = 31
matrix size = 15
fillins = 0
solver = Alternate
Avg thread counts: 1.5/2.0/2.0/1.5
Matrix Compiler1: 566 bytes object code size  0.5/0.4/[0.3]
Matrix Compiler2: 953 bytes object code size  0.5/0.6/[0.3]

