Circuit: * C:\Users\lenovo\Documentos\Sensoria\Sim\Carregador_Bat.asc

WARNING: Less than two connections to node v+.  This node is used by l1.
Direct Newton iteration for .op point succeeded.
.step vrip_pp=1
.step vrip_pp=2.5
.step vrip_pp=5
.step vrip_pp=10
.step vrip_pp=15

Date: Mon Jan 12 11:41:33 2026
Total elapsed time: 78.315 seconds.

tnom = 27
temp = 27
method = Gear
totiter = 2000043
traniter = 2000040
tranpoints = 1000021
accept = 1000021
rejected = 0
matrix size = 4
fillins = 0
solver = Alternate
Avg thread counts: 1.0/1.0/1.0/1.0
Matrix Compiler1:       6 opcodes  0.4/[0.2]/0.3
Matrix Compiler2: 280 bytes object code size  0.2/0.3/[0.2]

