Circuit: * C:\Users\lenovo\Documentos\Sensoria\Sim\Draft1.asc

.OP point found by inspection.

Date: Wed Dec 17 15:07:56 2025
Total elapsed time: 0.053 seconds.

tnom = 27
temp = 27
method = Gear
totiter = 0
traniter = 0
tranpoints = 0
accept = 0
rejected = 0
matrix size = 3
fillins = 0
solver = Normal
Avg thread counts: 4.0/0.0/0.0/1.2
Matrix Compiler1:       4 opcodes
Matrix Compiler2:      15 opcodes
